<routes><vType id="car" accel="2.6" decel="4.5" length="5" maxSpeed="16" sigma="0.5" /><vType id="bike" accel="3.5" decel="5.0" length="2" maxSpeed="18" sigma="0.7" /><flow id="morning_cars" type="car" begin="0" end="3600" vehsPerHour="900" from="239840578#0" to="-1030313018#1" /><flow id="morning_bikes" type="bike" begin="0" end="3600" vehsPerHour="1200" from="239840578#0" to="-1030313018#1" /></routes>